54
Lab 1
Na	0.0	0.0	0.0
Cl	2.805	2.805	2.805
Na	0.0	0.0	5.61
Cl	2.805	2.805	8.415
Na	0.0	0.0	11.22
Cl	2.805	2.805	14.025
Na	0.0	5.61	0.0
Cl	2.805	8.415	2.805
Na	0.0	5.61	5.61
Cl	2.805	8.415	8.415
Na	0.0	5.61	11.22
Cl	2.805	8.415	14.025
Na	0.0	11.22	0.0
Cl	2.805	14.025	2.805
Na	0.0	11.22	5.61
Cl	2.805	14.025	8.415
Na	0.0	11.22	11.22
Cl	2.805	14.025	14.025
Na	5.61	0.0	0.0
Cl	8.415	2.805	2.805
Na	5.61	0.0	5.61
Cl	8.415	2.805	8.415
Na	5.61	0.0	11.22
Cl	8.415	2.805	14.025
Na	5.61	5.61	0.0
Cl	8.415	8.415	2.805
Na	5.61	5.61	5.61
Cl	8.415	8.415	8.415
Na	5.61	5.61	11.22
Cl	8.415	8.415	14.025
Na	5.61	11.22	0.0
Cl	8.415	14.025	2.805
Na	5.61	11.22	5.61
Cl	8.415	14.025	8.415
Na	5.61	11.22	11.22
Cl	8.415	14.025	14.025
Na	11.22	0.0	0.0
Cl	14.025	2.805	2.805
Na	11.22	0.0	5.61
Cl	14.025	2.805	8.415
Na	11.22	0.0	11.22
Cl	14.025	2.805	14.025
Na	11.22	5.61	0.0
Cl	14.025	8.415	2.805
Na	11.22	5.61	5.61
Cl	14.025	8.415	8.415
Na	11.22	5.61	11.22
Cl	14.025	8.415	14.025
Na	11.22	11.22	0.0
Cl	14.025	14.025	2.805
Na	11.22	11.22	5.61
Cl	14.025	14.025	8.415
Na	11.22	11.22	11.22
Cl	14.025	14.025	14.025
